Version 4
SHEET 1 1336 680
WIRE -16 160 -144 160
WIRE 96 160 -16 160
WIRE 464 192 320 192
WIRE 800 192 688 192
WIRE -144 208 -144 160
WIRE 96 224 48 224
WIRE 1104 224 1024 224
WIRE 320 240 320 192
WIRE 800 256 752 256
WIRE 752 352 752 256
WIRE 1024 352 1024 224
WIRE 1024 352 752 352
WIRE 1248 352 1104 352
WIRE 48 368 48 224
WIRE 320 368 48 368
WIRE 80 512 80 480
WIRE 112 512 80 512
WIRE 320 512 320 368
WIRE 320 512 240 512
WIRE 384 512 320 512
WIRE 544 512 512 512
WIRE 544 560 544 512
FLAG -16 160 Vin
FLAG 48 224 Vminus
FLAG 464 192 Vout
FLAG 688 192 Vout
FLAG 752 352 Vfollow
FLAG 1248 352 Vlaser
SYMBOL cktsym\\opamprails 192 192 R0
SYMATTR InstName U1
SYMBOL cktsym\\vsource -416 208 R0
SYMATTR Value 5
SYMATTR InstName V1
SYMBOL cktsym\\vdd -416 144 R0
SYMATTR InstName U2
SYMBOL cktsym\\gnd_alt -416 272 R0
SYMATTR InstName U3
SYMBOL cktsym\\gnd_alt 208 272 R0
SYMATTR InstName U4
SYMBOL cktsym\\vdd 208 112 R0
SYMATTR InstName U5
SYMBOL cktsym\\vsource -144 272 R0
WINDOW 123 0 0 Left 0
WINDOW 39 0 0 Left 0
SYMATTR Value 3.3V
SYMATTR InstName Vin
SYMBOL cktsym\\gnd_alt -144 336 R0
SYMATTR InstName U6
SYMBOL cktsym\\resistor 320 304 R0
SYMATTR Value 1k
SYMATTR InstName R1
SYMBOL cktsym\\resistor 448 512 R90
WINDOW 3 12 0 VTop 2
WINDOW 0 -12 0 VBottom 2
SYMATTR Value 2k
SYMATTR InstName R2
SYMBOL cktsym\\gnd_alt 544 560 R0
SYMATTR InstName U7
SYMBOL cktsym\\resistor 176 528 R90
WINDOW 3 12 0 VTop 2
WINDOW 0 -12 0 VBottom 2
SYMATTR Value 4k
SYMATTR InstName R3
SYMBOL cktsym\\vdd 80 480 R0
SYMATTR InstName U8
SYMBOL cktsym\\opamprails 896 224 R0
SYMATTR InstName U9
SYMBOL cktsym\\gnd_alt 912 304 R0
SYMATTR InstName U10
SYMBOL cktsym\\vdd 912 144 R0
SYMATTR InstName U11
SYMBOL cktsym\\resistor 1104 288 R0
SYMATTR Value 1k
SYMATTR InstName R4
SYMBOL cktsym\\resistor 1104 416 R0
SYMATTR Value 3k
SYMATTR InstName R5
SYMBOL cktsym\\gnd_alt 1104 480 R0
SYMATTR InstName U12
TEXT -456 456 Left 2 !.include engr2420.sub
TEXT -458 476 Left 2 !.dc Vin 0 3.3 0.1
